[TITLE]
;;Project Title/Notes

[OPTIONS]
;;Option             Value
FLOW_UNITS           CMS
INFILTRATION         MODIFIED_GREEN_AMPT
FLOW_ROUTING         DYNWAVE
LINK_OFFSETS         DEPTH
MIN_SLOPE            1
ALLOW_PONDING        NO
SKIP_STEADY_STATE    NO

START_DATE           01/01/2000
START_TIME           00:00:00
REPORT_START_DATE    01/01/2000
REPORT_START_TIME    00:00:00
END_DATE             01/01/2000
END_TIME             00:02:00
SWEEP_START          01/01
SWEEP_END            12/31
DRY_DAYS             5
REPORT_STEP          00:00:10
WET_STEP             00:01:00
DRY_STEP             24:00:00
ROUTING_STEP         0.1
RULE_STEP            00:00:00

INERTIAL_DAMPING     PARTIAL
NORMAL_FLOW_LIMITED  BOTH
FORCE_MAIN_EQUATION  H-W
VARIABLE_STEP        0.95
LENGTHENING_STEP     0
MIN_SURFAREA         12.566
MAX_TRIALS           32
HEAD_TOLERANCE       0.001
SYS_FLOW_TOL         5
LAT_FLOW_TOL         5
MINIMUM_STEP         0.005
THREADS              1
IGNORE_QUALITY       YES

[EVAPORATION]
;;Data Source    Parameters
;;-------------- ----------------
CONSTANT         0.0
DRY_ONLY         NO

[RAINGAGES]
;;Name           Format    Interval SCF      Source    
;;-------------- --------- -------- -------- ----------
156 INTENSITY 00:00:10 1.0 TIMESERIES 156
171 INTENSITY 00:00:10 1.0 TIMESERIES 171
170 INTENSITY 00:00:10 1.0 TIMESERIES 170
155 INTENSITY 00:00:10 1.0 TIMESERIES 155
140 INTENSITY 00:00:10 1.0 TIMESERIES 140
141 INTENSITY 00:00:10 1.0 TIMESERIES 141            

[SUBCATCHMENTS]
;;Name           Rain Gage        Outlet           Area     %Imperv  Width    %Slope   CurbLen  SnowPack        
;;-------------- ---------------- ---------------- -------- -------- -------- -------- -------- ----------------
S10              156              E133475          0.116147 90.501   26.99    2.927    0                        
S100             156              F138001          0.080251 100      20.006   1.15     0                        
S101             156              F138007          0.015743 100      4.091    0.786    0                        
S102             156              F134230          0.013153 84.794   6.854    2.087    0                        
S103             156              F138004          0.035451 100      19.646   0.793    0                        
S104             156              F133428          0.068312 74.634   24.518   3.177    0                        
S105             156              F137013          0.096317 100      30.608   0.796    0                        
S106             156              UN12             0.042048 23.118   13.974   4.275    0                        
S106_1           156              E134261          0.247916 65.949   45.682   3.754    0                        
S106_2           156              E134261          0.27847  29.739   36.254   4.082    0                        
S106_3           156              E143355          0.130878 87.579   25.792   4.324    0                        
S106_4           156              E143355          0.215581 96.054   23.329   2.597    0                        
S107             156              E134262          0.151882 51.352   26.582   5.5      0                        
S108             156              F137014          0.033306 100      12.385   1.03     0                        
S109             171              F138015          0.096398 6.489    35.056   1.877    0                        
S109_1           171              F1306017         0.29745  33.092   107.752  5.802    0                        
S109_2           171              F1306016         0.063456 72.108   31.641   2.597    0                        
S11              156              F1306013         0.23881  97.381   46.67    3.131    0                        
S110             156              F137009          0.210158 98.568   38.664   1.073    0                        
S111             156              F137011          0.058195 100      19.239   0.947    0                        
S112             170              F147008          0.215824 79.101   28.457   2.986    0                        
S112_3           170              F1409017         0.121732 62.488   23.817   5.313    0                        
S112_4           170              F143640          0.071429 59.616   28.375   3.139    0                        
S113             156              E134219          0.241926 100      21.347   2.99     0                        
S114             156              F137010          0.019466 100      10.8     0.794    0                        
S115             156              F134112          0.222825 88.48    29.803   1.554    0                        
S116             155              E143754          0.093889 98.157   31.031   0.69     0                        
S116_1           171              F1306022         0.103683 48.152   24.78    1.642    0                        
S116_2           156              F133459          1.158438 93.737   75.282   1.317    0                        
S116_3           156              F133459          0.096843 86.205   17.706   2.315    0                        
S116_4           140              E1520537         0.039417 80.084   14.532   2.064    0                        
S116_5           140              E1520536         0.035087 86.731   13.124   3.085    0                        
S117             156              UN78             0.057628 69.761   17.888   3.585    0                        
S118             156              F1302002         0.01894  83.54    12.462   6.616    0                        
S119             171              F1306023         0.10862  54.093   38.171   2.09     0                        
S12              156              UN17             0.333792 82.057   57.357   2.856    0                        
S120             156              F138009          0.130797 100      36.86    1.29     0                        
S121             170              F143657          0.542331 60.167   55.616   3.189    0                        
S121_1           170              F143653          0.008296 100      4.723    2.111    0                        
S121_3           170              F143641          0.123229 53.709   36.108   3.813    0                        
S122             156              F134101          0.091623 29.747   28.554   1.591    0                        
S122_1           156              F13002000        0.10174  79.659   22.865   2.894    0                        
S122_2           156              E135220          0.076487 89.41    38.108   3.384    0                        
S123             156              F138002          0.050546 100      29.375   1.229    0                        
S124             156              UN44             0.007446 99.005   6.304    10.453   0                        
S125             156              F143623          0.234035 6.863    46.664   3.384    0                        
S125_1           171              F132690          0.055929 73.766   21.755   2.119    0                        
S125_3           171              F13269           0.143383 68.986   38.694   2.437    0                        
S126             156              UN32             0.529583 52.304   63.826   2.558    0                        
S127             140              E143751          0.08531  98.28    40.522   1.334    0                        
S128             156              E1437196         0.113314 97.906   34.341   1.999    0                        
S128_2           156              UN80             0.519304 36.255   46.11    1.637    0                        
S129             155              E143798          0.271348 73.125   49.259   2.2      0                        
S129_2           156              F138014          0.065399 95.596   29.415   1.453    0                        
S13              156              UN18             0.293525 89.215   54.487   2.166    0                        
S130             170              F144006          0.048159 58.849   16.056   4.412    0                        
S130_1           170              F147014          0.147875 53.412   20.89    2.361    0                        
S130_2           170              F147010          0.038648 35.28    10.99    3.277    0                        
S131             155              E143795          0.092149 97.276   38.171   1.795    0                        
S132             156              E134213          0.285026 95.067   47.698   3.607    0                        
S133             156              F134124          0.404492 45.302   76.097   3.496    0                        
S134             156              E143357          0.437394 85.973   35.646   2.875    0                        
S134_1           156              E134008          0.117402 6.034    34.161   1.75     0                        
S134_2           156              E134007          0.20089  23.209   37.442   2.276    0                        
S135             156              F1302001         0.144638 84.007   28.228   3.038    0                        
S136             156              F143573          0.169203 6.349    28.096   3.473    0                        
S137             156              E134263          0.031566 38.382   13.619   3.443    0                        
S138             155              E143791          0.301943 99.661   43.303   1.023    0                        
S139             155              E143787          0.036665 95.254   10.114   2.508    0                        
S139_1           171              F1306020         0.094739 70.812   38.925   1.789    0                        
S14              156              F133454          0.71979  84.197   42.51    1.643    0                        
S140             156              E143393          0.350304 33.346   55.359   4.038    0                        
S141             156              F143570          0.069203 8.394    34.414   3.382    0                        
S141_1           171              F13263           0.138244 77.324   32.068   2.311    0                        
S142             156              F143564          0.036827 14.962   16.444   3.11     0                        
S142_1           156              F143564          0.012667 63.035   7.272    1.957    0                        
S142_3           156              F143565          0.031283 0        14.118   3.097    0                        
S143             156              E134265          0.122622 69.475   42.938   4.533    0                        
S144             156              F134118          3.958681 9.959    229.027  2.949    0                        
S145             156              F138013          0.156172 90.768   50.872   1.969    0                        
S146             156              E134264          0.021287 78.042   19.304   3.581    0                        
S147             156              E139000          0.011291 96.592   13.977   1.957    0                        
S148             156              F143555          0.137151 55.53    31.973   3.013    0                        
S148_1           156              F143561          0.056333 28.543   21.409   3.582    0                        
S148_3           156              F143560          0.052003 44.472   20.827   3.517    0                        
S148_4           156              F143562          0.075718 27.625   26.058   3.882    0                        
S148_5           156              F143577          0.093646 41.851   21.192   3.785    0                        
S149             156              E143378          0.008377 100      5.86     3.21     0                        
S15              156              UN26             0.322056 98.343   39.78    0.85     0                        
S15_1            156              UN20             0.055322 100      12.937   1.052    0                        
S15_2            156              F133466          0.265925 93.976   46.442   2.045    0                        
S150             156              F138008          0.139781 89.724   45.987   2.459    0                        
S151             156              F143567          0.048685 14.776   16.619   3.308    0                        
S151_4           171              F1306019         0.089964 100      27.898   1.314    0                        
S151_5           171              F1306018         0.105828 81.064   23.296   1.843    0                        
S152             156              E143361          0.039013 100      25.005   2.364    0                        
S153             156              E143350          0.035654 66.503   13.787   2.928    0                        
S153_1           156              E133420          0.027357 7.856    4.028    2.14     0                        
S153_2           156              E133420          0.322339 49.272   44.221   2.401    0                        
S154             155              E144050          0.324444 77.339   33.504   4.812    0                        
S154_2           156              E133407          0.563375 8.803    44.057   2.733    0                        
S154_3           156              E133412          0.419992 89.554   34.868   2.739    0                        
S154_4           156              E133411          0.19312  41.531   33.301   2.502    0                        
S155             156              F134105          0.133832 52.721   25.595   2.707    0                        
S156             155              F147144          0.149008 91.475   25.448   3.547    0                        
S156_1           156              UN52             0.025658 0        17.219   1.855    0                        
S156_2           156              E133416          0.060664 33.902   24.164   3.47     0                        
S157             156              E1331939         0.027034 100      10.437   2.043    0                        
S157_1           156              E134290          0.088264 38.74    16.493   3.821    0                        
S157_10          156              E1331932         0.096155 97.432   16.591   3.488    0                        
S157_2           156              E134011          0.154755 75.271   34.068   2.942    0                        
S157_4           156              E1331936         0.011331 99.982   11.547   2.286    0                        
S157_5           156              E1331934         0.539701 90.099   66.73    2.143    0                        
S157_6           156              E1331940         0.039377 99.767   16.11    2.617    0                        
S157_7           156              E1331932         0.107082 98.615   18.388   3.531    0                        
S157_9           156              UN47             0.161635 98.919   25.452   1.67     0                        
S158             156              F133422          0.044233 29.309   15.654   3.124    0                        
S159             156              E134259          0.082193 65.458   21.279   4.482    0                        
S16              156              E133476          0.215378 94.776   34.528   2.541    0                        
S160             170              F143666          0.059207 50.476   20.289   3.444    0                        
S160_2           156              E134204          0.187454 66.933   45.959   2.298    0                        
S161             156              F134138          0.067624 81.787   34.315   1.196    0                        
S162             155              E143783          0.025172 76.769   14.228   4.256    0                        
S162_1           155              E145300          0.018656 74.969   18.51    2.329    0                        
S163             156              E134010          0.07155  62.123   19.66    2.719    0                        
S164             156              E1331933         0.091178 97.743   11.339   2.594    0                        
S164_1           156              E134258          0.01987  72.819   12.778   6.399    0                        
S164_2           156              E134256          0.0138   75.48    8.567    4.796    0                        
S164_3           156              E134274          0.843707 59.058   85.822   3.209    0                        
S164_5           156              E134254          0.244719 57.862   59.66    5.733    0                        
S165             156              E134009          0.007406 0        11.47    4.405    0                        
S166             156              F134128          0.310846 14.918   46.35    3.753    0                        
S167             156              F138012          0.055888 46.163   33.34    6.29     0                        
S168             171              F13262           0.134601 61.818   24.296   2.668    0                        
S169             156              E133415          0.028895 44.883   18.368   3.476    0                        
S17              156              E134203          0.059288 92.566   42.06    2.647    0                        
S17_3            156              E134208          0.063942 93.968   20.889   2.607    0                        
S170             156              E135000          0.01813  76.256   10.882   3.335    0                        
S171             171              F1306043         0.058924 96.362   23.306   2.704    0                        
S171_1           171              F13258           0.264306 64.672   44.554   2.891    0                        
S171_2           171              F13255           0.040429 89.561   13.142   2.246    0                        
S172             171              F13257           0.464873 57.855   40.174   3.151    0                        
S172_1           171              F13254           0.146459 59.814   30.315   3.414    0                        
S172_2           171              F13253           0.079603 62.022   20.378   4.651    0                        
S172_4           171              F13252           0.195063 70.03    29.22    3.092    0                        
S173             156              E134289          0.145002 63.88    24.961   3.808    0                        
S174             156              E133414          0.008539 72.048   8.079    2.527    0                        
S175             156              F135999          0.130676 12.739   23.93    6.378    0                        
S176             156              E134291          0.090166 48.322   24.087   2.709    0                        
S177             156              E1331931         0.045771 86.601   26.243   7.327    0                        
S177_1           156              E1331937         0.1707   90.818   22.505   2.849    0                        
S177_3           156              E1331932         0.226427 96.268   31.285   2.135    0                        
S178             156              F134137          0.115783 0        28.926   5.446    0                        
S179             156              F143549          0.02497  64.259   13.268   2.484    0                        
S18              156              UN19             0.081263 89.531   18.924   1.868    0                        
S180             155              E143775          1.094941 88.898   94.363   2.992    0                        
S180_2           171              F134140          0.123715 0.675    35.364   7.283    0                        
S181             140              UN76             0.258316 86.926   47.062   1.053    0                        
S182             156              F143552          0.094051 32.027   101.997  4.883    0                        
S183             156              E134260          0.008296 14.569   7.662    7.249    0                        
S184             156              E134275          0.013881 56.167   9.092    3.922    0                        
S185             171              F13256           0.548159 59.384   39.992   3.374    0                        
S186             155              E143336          0.433266 86.287   44.985   4.236    0                        
S186_1           156              E133399          0.121934 99.24    28.618   2.293    0                        
S186_2           156              E133398          0.310522 59.881   48.452   3.446    0                        
S186_4           155              E144018          0.202752 73.663   32.535   3.546    0                        
S186_7           155              E143336          0.03193  99.212   11.243   3.389    0                        
S187             171              F149004.2        0.873169 43.949   88.121   2.752    0                        
S187_1           156              E144272          0.519587 47.392   37.515   2.98     0                        
S187_2           156              E143381          0.479401 94.003   46.764   1.669    0                        
S188             140              E143971          0.098179 36.104   45.43    6.232    0                        
S188_1           171              F134146          0.086119 0        24.455   6.135    0                        
S189             171              F1409043         0.142695 64.742   41.29    3.369    0                        
S189_1           171              F1409045         0.320073 63.945   31.358   2.489    0                        
S189_2           171              F1409046         0.558276 31.392   47.771   2.578    0                        
S19              155              F143924          0.40607  56.558   59.152   2.673    0                        
S19_1            156              F1306011         0.443707 89.726   48.217   2.33     0                        
S19_2            156              F133434          0.26981  86.812   25.467   1.877    0                        
S19_3            156              F133429          0.087171 79.529   29.868   2.343    0                        
S19_4            156              F133431          0.246661 81.26    51.934   2.624    0                        
S190             155              E145006          0.329988 65.863   28.602   5.535    0                        
S190_1           156              E133404          0.050951 83.773   23.677   4.787    0                        
S190_2           156              E133402          0.188749 75.467   43.467   3.867    0                        
S190_3           155              T66              0.655362 77.868   61.122   5.304    0                        
S191             156              E1331935         0.344557 95.995   45.261   2.338    0                        
S192             156              F136001          0.069607 3.984    37.291   2.513    0                        
S193             156              E134288          0.38017  54.041   56.917   3.608    0                        
S194             156              E1331924         0.259004 58.771   37.222   5.963    0                        
S195             171              F13261           0.072562 82.27    30.242   1.858    0                        
S196             140              E143964          0.063456 43.909   32.533   5.112    0                        
S196_1           171              F135013          0.428571 8.472    62.686   2.509    0                        
S196_2           140              E143274          0.069527 32.778   21.413   4.561    0                        
S196_3           156              F135014          0.095346 10.86    38.305   3.678    0                        
S197             171              F134148          0.142898 63.826   34.456   5.006    0                        
S198             140              E147013          0.414529 58.909   80.551   3.856    0                        
S198_1           171              F13259           0.048725 49.695   25.251   3.406    0                        
S198_2           171              F13260           0.07669  87.852   26.124   2.437    0                        
S199             171              F1306037         0.099433 28.123   36.574   2.291    0                        
S2               156              E133477          0.339093 83.59    28.421   2.401    0                        
S20              156              E133470          0.377742 86.669   62.156   1.923    0                        
S200             141              E144252          0.065803 65.333   23.284   2.894    0                        
S200_1           156              E133385          0.040834 57.912   17.577   8.028    0                        
S201             170              F144005          0.164549 55.771   37.816   3.88     0                        
S202             140              E145064          0.190004 66.302   41.82    2.393    0                        
S202_3           156              F143572          0.58187  3.241    81.109   2.348    0                        
S202_5           140              UN73             0.160057 99.419   23.495   0.601    0                        
S203             156              F136002          0.026062 28.6     15.135   2.081    0                        
S204             171              F1306035         0.172805 59.924   51.273   3.296    0                        
S205             140              E1437164         0.059733 1.265    25.786   6.452    0                        
S205_1           171              F1306036         0.149494 61.24    40.508   2.921    0                        
S205_2           171              F1306040         0.034925 64.443   12.45    2.765    0                        
S206             140              E145062          0.078713 78.887   28.938   2.001    0                        
S207             140              E147008          0.08276  7.45     48.384   3.746    0                        
S208             156              E1331929         0.009065 77.21    6.369    1.673    0                        
S209             170              F143669          0.329381 73.055   31.126   4.092    0                        
S209_2           170              F143661          0.368434 54.183   38.059   5.537    0                        
S21              156              F133462          0.238567 97.226   36.847   1.849    0                        
S210             155              UN3              0.154148 58.873   20.392   6.739    0                        
S210_1           156              E1437195         0.064711 99.244   21.165   3.316    0                        
S210_2           156              E1331925         0.176285 98.36    33.039   2.025    0                        
S210_4           156              E1437192         0.02501  81.342   14.855   3.884    0                        
S210_5           156              E1437193         0.033225 18.712   10.585   6.021    0                        
S211             171              F1306034         0.21554  77.302   49.136   4.35     0                        
S212             155              E143736          0.075273 89.805   12.261   3.805    0                        
S212_1           171              F1306042         0.038365 72.146   20.719   3.501    0                        
S213             170              F143668          1.189761 50.415   70.415   3.578    0                        
S213_1           156              E134287          0.027762 66.434   16.442   3.541    0                        
S213_2           156              E134286          0.452367 59.75    80.448   3.364    0                        
S214             171              F13250           0.218535 57.74    48.039   2.892    0                        
S215             156              E133394          0.336949 37.554   55.426   3.463    0                        
S216             170              F143681.09       0.235168 86.963   56.939   1.673    0                        
S216_1           156              E144283          0.177297 64.076   30.554   3.267    0                        
S216_10          170              F143680          0.102711 99.735   20.503   1.504    0                        
S216_2           156              E134285          0.037475 46.383   18.239   4.511    0                        
S216_3           156              E134280          0.168758 63.689   34.824   3.721    0                        
S216_4           170              F143672          0.081263 39.322   11.582   3.038    0                        
S216_5           156              E134281          0.494496 59.847   68.155   3.45     0                        
S216_6           156              E134250          0.265156 60.749   50.608   3.767    0                        
S216_7           156              E134250          0.005221 55.704   4.118    16.429   0                        
S216_8           170              F143689.13       0.107568 99.973   38.758   0.966    0                        
S216_9           170              F143679          0.077661 99.917   25.241   1.64     0                        
S217             171              F1306033         0.052003 74.255   14.339   5.048    0                        
S218             171              F143681          0.33274  36.261   42.549   3.907    0                        
S218_1           171              F143683          0.195225 70.338   55.306   2.511    0                        
S219             156              UN30             0.349939 75.122   43.603   0.905    0                        
S22              171              F13299           0.013517 76.507   9.924    5.935    0                        
S220             171              F1306044         0.246216 46.253   65.925   2.292    0                        
S221             156              F143545          2.275354 8.682    134.507  3.03     0                        
S222             156              E134278          0.226265 56.598   48.226   3.574    0                        
S223             171              F1409048         0.630635 56.05    66.052   2.715    0                        