[TITLE]
;;Project Title/Notes

[OPTIONS]
;;Option             Value
FLOW_UNITS           CMS
INFILTRATION         MODIFIED_GREEN_AMPT
FLOW_ROUTING         DYNWAVE
LINK_OFFSETS         DEPTH
MIN_SLOPE            1
ALLOW_PONDING        NO
SKIP_STEADY_STATE    NO

START_DATE           01/01/2000
START_TIME           00:00:00
REPORT_START_DATE    01/01/2000
REPORT_START_TIME    00:00:00
END_DATE             01/01/2000
END_TIME             00:02:00
SWEEP_START          01/01
SWEEP_END            12/31
DRY_DAYS             5
REPORT_STEP          00:00:10
WET_STEP             00:01:00
DRY_STEP             24:00:00
ROUTING_STEP         0.1
RULE_STEP            00:00:00

INERTIAL_DAMPING     PARTIAL
NORMAL_FLOW_LIMITED  BOTH
FORCE_MAIN_EQUATION  H-W
VARIABLE_STEP        0.95
LENGTHENING_STEP     0
MIN_SURFAREA         12.566
MAX_TRIALS           32
HEAD_TOLERANCE       0.001
SYS_FLOW_TOL         5
LAT_FLOW_TOL         5
MINIMUM_STEP         0.005
THREADS              1
IGNORE_QUALITY       YES

[EVAPORATION]
;;Data Source    Parameters
;;-------------- ----------------
CONSTANT         0.0
DRY_ONLY         NO

[JUNCTIONS]
;;Name           Elevation  MaxDepth   InitDepth  SurDepth   Aponded   
;;-------------- ---------- ---------- ---------- ---------- ----------
05-0088          1.89       0.964      0          0          0         
07-0077          2.134      1.032      0          0          0         
11-0057          -1.097     2.295      0          0          0         
13-0000          1.189      0.719      0          0          0         
E13159           0.186      2.244      0          0          0         
E1331922         1.335      0.862      0          0          0         
E1331923         1.853      0.418      0          0          0         
E1331924         0.686      1.27       0          0          0         
E1331925         1.466      0.394      0          0          0         
E1331926         1.512      0.474      0          0          0         
E1331927         1.564      0.332      0          0          0         
E1331928         1.615      0.41       0          0          0         
E1331929         1.676      0.314      0          0          0         
E1331930         0.533      1.315      0          0          0         
E1331931         0.698      0.998      0          0          0         
E1331932         0.808      1.172      0          0          0         
E1331933         1.094      0.848      0          0          0         
E1331934         1.183      0.79       0          0          0         
E1331935         1.173      0.768      0          0          0         
E1331936         1.259      0.852      0          0          0         
E1331937         1.298      0.794      0          0          0         
E1331938         1.375      1.097      0          0          0         
E1331939         1.835      0.866      0          0          0         
E1331940         1.981      0.738      0          0          0         
E133385          0.323      1.599      0          0          0         
E133394          -0.271     1.746      0          0          0         
E133395          0.091      1.254      0          0          0         
E133396          0.091      1.251      0          0          0         
E133397          1.067      0.222      0          0          0         
E133398          -0.253     1.857      0          0          0         
E133399          -0.122     1.537      0          0          0         
E133401          -0.229     1.751      0          0          0         
E133402          0.043      1.289      0          0          0         
E133403          0.116      1.375      0          0          0         
E133404          1.189      0.214      0          0          0         
E133407          -0.21      1.931      0          0          0         
E133410          -0.207     1.936      0          0          0         
E133411          0.482      0.979      0          0          0         
E133412          0.509      0.885      0          0          0         
E133414          -0.204     1.924      0          0          0         
E133415          0.469      0.998      0          0          0         
E133416          -0.201     1.949      0          0          0         
E133420          -0.192     1.962      0          0          0         
E133421          0.296      1.37       0          0          0         
E133464          1.198      1.384      0          0          0         
E133465          1.46       1.12       0          0          0         
E133468          1.173      1.536      0          0          0         
E133469          1.35       1.52       0          0          0         
E133470          1.173      1.587      0          0          0         
E133472          1.228      1.622      0          0          0         
E133473          1.274      1.574      0          0          0         
E133474          1.561      1.524      0          0          0         
E133475          2.313      0.666      0          0          0         
E133476          1.603      1.576      0          0          0         
E133477          2.131      0.969      0          0          0         
E133478          1.914      0.698      0          0          0         
E133479          1.929      0.68       0          0          0         
E133480          1.917      0.673      0          0          0         
E133481          1.981      0.416      0          0          0         
E133482          1.6        1.371      0          0          0         
E133484          1.661      1.298      0          0          0         
E133487          1.649      1.262      0          0          0         
E134007          0.369      1.965      0          0          0         
E134008          1.536      0.923      0          0          0         
E134009          1.682      0.737      0          0          0         
E134010          0.698      1.97       0          0          0         
E134011          0.954      1.639      0          0          0         
E134203          -0.107     1.834      0          0          0         
E134204          0.418      1.372      0          0          0         
E134207          0.171      1.372      0          0          0         
E134208          0.201      1.548      0          0          0         
E134209          0.186      1.758      0          0          0         
E134210          0.408      1.642      0          0          0         
E134211          0.427      1.572      0          0          0         
E134213          0.427      1.149      0          0          0         
E134214          0.43       1.319      0          0          0         
E134215          1.036      0.649      0          0          0         
E134216          1.049      0.566      0          0          0         
E134217          1.055      0.811      0          0          0         
E134218          1.1        0.618      0          0          0         
E134219          0.247      1.727      0          0          0         
E134220          0.536      1.311      0          0          0         
E134221          0.768      1.253      0          0          0         
E134222          0.265      1.698      0          0          0         
E134223          0.863      1.111      0          0          0         
E134224          0.332      1.897      0          0          0         
E134250          0.259      2.522      0          0          0         
E134253          0.369      2.177      0          0          0         
E134254          0.512      1.299      0          0          0         
E134255          1.137      1.184      0          0          0         
E134256          1.219      1.414      0          0          0         
E134257          0.759      0.973      0          0          0         
E134258          0.884      1.368      0          0          0         
E134259          1.049      0.648      0          0          0         
E134260          1.082      0.83       0          0          0         
E134261          0.832      1.285      0          0          0         
E134262          0.991      1.281      0          0          0         
E134263          1.042      0.849      0          0          0         
E134264          1.128      0.659      0          0          0         
E134265          1.335      0.477      0          0          0         
E134266          1.551      0.9        0          0          0         
E134267          1.628      0.723      0          0          0         
E134268          1.603      1.098      0          0          0         
E134270          1.676      1.006      0          0          0         
E134274          1.216      1.129      0          0          0         
E134275          1.268      1.131      0          0          0         
E134278          0.18       1.761      0          0          0         
E134280          0.14       2.042      0          0          0         
E134281          0.786      1.305      0          0          0         
E134284          0.479      1.652      0          0          0         
E134285          0.558      1.415      0          0          0         
E134286          0.661      1.648      0          0          0         
E134287          0.759      1.376      0          0          0         
E134288          0.844      1.428      0          0          0         
E134289          1.091      1.499      0          0          0         
E134290          1.207      1.382      0          0          0         
E134291          1.314      1.386      0          0          0         
E135000          1.234      0.876      0          0          0         
E135220          0.762      1.323      0          0          0         
E139000          0.762      1.079      0          0          0         
E139001          0.03       1.8        0          0          0         
E14160           1.241      1.162      0          0          0         
E143250          -1.079     0          0          0          0         
E143254          -1.07      1.986      0          0          0         
E143257          -0.186     1.289      0          0          0         
E143258          0.043      0.971      0          0          0         
E143267          -1.119     2.222      0          0          0         
E143268          0.009      0.923      0          0          0         
E143269          -0.914     2.11       0          0          0         
E143270          0.119      1.035      0          0          0         
E143274          -0.914     1.995      0          0          0         
E143275          -0.789     1.893      0          0          0         
E143276          -0.494     1.478      0          0          0         
E143277          -0.32      1.718      0          0          0         
E143278          0.201      1.002      0          0          0         
E143279          -0.899     2.384      0          0          0         
E143280          -1.061     2.627      0          0          0         
E143281          -0.555     1.934      0          0          0         
E143282          0.399      1.308      0          0          0         
E143283          0.951      0.624      0          0          0         
E143284          0.527      1.473      0          0          0         
E143285          0.408      1.614      0          0          0         
E143286          0.649      1.483      0          0          0         
E143287          1.03       0.932      0          0          0         
E143288          0.951      1.408      0          0          0         
E143289          1.369      0.873      0          0          0         
E143290          1.494      1.325      0          0          0         
E143291          1.39       0.72       0          0          0         
E143292          1.524      0.599      0          0          0         
E143293          1.378      0.618      0          0          0         
E143295          1.192      0.862      0          0          0         
E143297          1.231      0.871      0          0          0         
E143299          1.07       1.642      0          0          0         
E143300          1.039      1.631      0          0          0         
E143301          1.067      0.758      0          0          0         
E143302          1.46       1.413      0          0          0         
E143303          1.527      1.285      0          0          0         
E143304          1.231      1.064      0          0          0         
E143305          1.396      1.295      0          0          0         
E143306          1.494      1.009      0          0          0         
E143307          1.301      0.651      0          0          0         
E143308          1.356      0.605      0          0          0         
E143309          -1.207     3.612      0          0          0         
E143310          -0.759     2.843      0          0          0         
E143311          0.896      0.803      0          0          0         
E143312          -0.856     2.857      0          0          0         
E143313          -0.765     3.057      0          0          0         
E143315          0.372      1.484      0          0          0         
E143316          0.439      1.463      0          0          0         
E143318          0.436      1.369      0          0          0         
E143319          0.229      1.323      0          0          0         
E143320          0.271      1.369      0          0          0         
E143321          0.436      1.323      0          0          0         
E143322          0.713      0.873      0          0          0         
E143323          -0.579     1.416      0          0          0         
E143324          -0.442     1.263      0          0          0         
E143325          -0.573     1.388      0          0          0         
E143326          -0.442     1.308      0          0          0         
E143327          -0.57      1.372      0          0          0         
E143329          0.293      0.719      0          0          0         
E143330          0.469      0.795      0          0          0         
E143332          -0.061     0.929      0          0          0         
E143336          -0.527     1.539      0          0          0         
E143338          1.67       0.702      0          0          0         
E143339          -0.405     1.651      0          0          0         
E143340          -0.277     1.578      0          0          0         
E143348          0.027      0.991      0          0          0         
E143349          -0.515     1.797      0          0          0         
E143350          0.552      0.689      0          0          0         
E143351          -0.512     1.819      0          0          0         
E143352          -0.418     1.759      0          0          0         
E143353          0.366      0.803      0          0          0         
E143354          0.765      0.86       0          0          0         
E143355          -0.311     1.952      0          0          0         
E143356          0.36       1.181      0          0          0         
E143357          0.299      1.295      0          0          0         
E143358          0.588      0.94       0          0          0         
E143359          -0.5       1.825      0          0          0         
E143360          0.344      0.818      0          0          0         
E143361          -0.497     1.813      0          0          0         
E143362          0.213      0.887      0          0          0         
E143363          -0.494     1.902      0          0          0         
E143364          0.311      0.961      0          0          0         
E143365          -0.347     1.674      0          0          0         
E143366          -0.454     2.092      0          0          0         
E143367          0.445      0.876      0          0          0         
E143368          -0.366     2.002      0          0          0         
E143369          -0.36      1.952      0          0          0         
E143370          -0.36      1.691      0          0          0         
E143371          0.131      1.055      0          0          0         
E143372          0.274      0.858      0          0          0         
E143373          -0.369     2.074      0          0          0         
E143374          0.341      1.377      0          0          0         
E143375          0.588      1.171      0          0          0         
E143376          -0.152     1.828      0          0          0         
E143377          -0.226     2.107      0          0          0         
E143378          -0.03      1.885      0          0          0         
E143379          -0.201     2.043      0          0          0         
E143380          0.582      1.139      0          0          0         
E143381          -0.192     2.059      0          0          0         
E143382          0.274      1.463      0          0          0         
E143383          0.762      0.91       0          0          0         
E143384          0.853      0.918      0          0          0         
E143386          -0.338     1.889      0          0          0         
E143387          0.265      1.245      0          0          0         
E143389          0.424      0.922      0          0          0         
E143390          0.488      0.939      0          0          0         
E143391          -0.329     1.861      0          0          0         
E143392          0.305      1.103      0          0          0         
E143393          -0.293     1.805      0          0          0         
E143419          -0.512     1.855      0          0          0         
E14357           0.838      1.624      0          0          0         
E143701          0.171      0.721      0          0          0         
E143704          -0.347     1.349      0          0          0         
E143705          0.134      1.084      0          0          0         
E143706          0.366      0.852      0          0          0         
E143707          -0.235     1.404      0          0          0         
E143708          0.274      0.96       0          0          0         
E143710          -1.079     2.9        0          0          0         
E143711          0.299      0.512      0          0          0         
E143713          -1.076     2.208      0          0          0         
E1437144         -0.61      1.673      0          0          0         
E1437145         0.549      0.58       0          0          0         
E1437146         0.664      0.479      0          0          0         
E1437147         0.177      0.911      0          0          0         
E1437148         0.207      0.763      0          0          0         
E1437149         0.244      0.871      0          0          0         
E143715          -0.302     1.419      0          0          0         
E1437150         -1.484     2.952      0          0          0         
E143716          0.268      0.703      0          0          0         
E1437162         -1.801     3.203      0          0          0         
E1437164         0.351      0.852      0          0          0         
E1437165         0.305      0.736      0          0          0         
E1437169         1.28       1.148      0          0          0         
E143717          -1.067     2.24       0          0          0         
E1437170         1.341      1.149      0          0          0         
E1437171         0.631      1.012      0          0          0         
E1437172         0.485      1.366      0          0          0         
E1437173         -0.03      1.882      0          0          0         
E1437174         -0.021     1.964      0          0          0         
E1437175         0.524      1.158      0          0          0         
E1437176         0.232      1.39       0          0          0         
E1437177         0.341      1.22       0          0          0         
E1437178         0.792      0.939      0          0          0         
E1437179         -0.393     1.756      0          0          0         
E143718          -0.381     1.461      0          0          0         
E1437180         0.576      1.166      0          0          0         
E1437181         1.981      2.101      0          0          0         
E1437182         2.591      1.801      0          0          0         
E1437183         1.234      0.684      0          0          0         
E1437186         0.61       1.166      0          0          0         
E1437187         0.701      0.933      0          0          0         
E143719          0.427      0.519      0          0          0         
E1437190         0.158      1.191      0          0          0         
E1437191         0.238      1.148      0          0          0         
E1437192         -0.299     1.701      0          0          0         
E1437193         -0.299     1.644      0          0          0         
E1437194         -0.241     1.732      0          0          0         
E1437195         0.216      1.099      0          0          0         
E1437196         1.128      0.673      0          0          0         
E143720          -0.393     1.714      0          0          0         
E143722          -0.57      1.191      0          0          0         
E143723          -1.106     1.927      0          0          0         
E143724          -0.622     1.308      0          0          0         
E143725          -0.579     1.3        0          0          0         
E143730          -1.067     2.065      0          0          0         
E143732          -0.594     1.468      0          0          0         
E143733          -1.058     2.03       0          0          0         
E143736          -1.055     2.014      0          0          0         
E143737          -0.122     1.032      0          0          0         
E143738          -0.015     0.922      0          0          0         
E143739          0.293      0.726      0          0          0         
E143740          -0.113     1.021      0          0          0         
E143741          0.037      1.297      0          0          0         
E143742          -1.039     1.971      0          0          0         
E143743          -0.256     1.218      0          0          0         
E143746          -0.945     1.914      0          0          0         
E143747          0.265      0.736      0          0          0         
E143749          -0.841     1.883      0          0          0         
E143750          0.271      2.3        0          0          0         
E143751          1.753      0.939      0          0          0         
E143752          0.283      2.34       0          0          0         
E143754          1.17       1.473      0          0          0         
E143755          0.375      2.118      0          0          0         
E143756          1.582      0.99       0          0          0         
E143757          0.488      1.781      0          0          0         
E143758          0.799      1.481      0          0          0         
E143759          0.533      1.529      0          0          0         
E143760          0.564      1.667      0          0          0         
E143761          0.497      1.565      0          0          0         
E143762          0.543      1.745      0          0          0         
E143763          0.573      1.749      0          0          0         
E143775          -0.905     2.013      0          0          0         
E143776          0.043      1.083      0          0          0         
E143777          -0.875     2.004      0          0          0         
E143778          -0.866     1.978      0          0          0         
E143779          -0.863     1.956      0          0          0         
E143782          -0.835     1.937      0          0          0         
E143783          -0.027     1.071      0          0          0         
E143784          0.131      0.998      0          0          0         
E143786          -0.777     1.909      0          0          0         
E143787          0.558      0.569      0          0          0         
E143788          -0.741     1.992      0          0          0         
E143789          -0.101     1.153      0          0          0         
E143790          0.03       1.245      0          0          0         
E143791          0.03       1.321      0          0          0         
E143792          -0.643     2.12       0          0          0         
E143794          0.756      0.639      0          0          0         
E143795          1.558      0.715      0          0          0         
E143796          1.597      0.886      0          0          0         
E143797          1.579      0.978      0          0          0         
E143798          1.558      0.865      0          0          0         
E143799          1.795      0.753      0          0          0         
E143800          1.798      0.879      0          0          0         
E143801          -0.643     2.144      0          0          0         
E143802          0.506      0.995      0          0          0         
E143803          -0.64      2.257      0          0          0         
E143806          0.536      0.853      0          0          0         
E143807          -0.64      2.211      0          0          0         
E143808          0.756      0.757      0          0          0         
E143809          0.853      0.842      0          0          0         
E143810          0.491      0.891      0          0          0         
E143811          -0.64      2.233      0          0          0         
E143812          -0.174     1.714      0          0          0         
E143813          0.607      0.868      0          0          0         
E143814          0.792      0.774      0          0          0         
E143815          0.5        1.033      0          0          0         
E143816          -0.631     2.123      0          0          0         
E143817          0.555      0.886      0          0          0         
E143818          -0.625     2.428      0          0          0         
E143820          0.128      1.118      0          0          0         
E143821          -0.512     1.861      0          0          0         
E143823          1.158      1.145      0          0          0         
E143824          1.219      1.261      0          0          0         
E143825          1.28       1.39       0          0          0         
E143829          1.664      1.249      0          0          0         
E143831          2.167      0.749      0          0          0         
E143832          2.024      1.108      0          0          0         
E143833          2.054      0.91       0          0          0         
E143834          -0.387     1.55       0          0          0         
E143839          -0.482     1.791      0          0          0         
E143840          -0.482     2.001      0          0          0         
E143841          -0.223     1.491      0          0          0         
E143842          0.774      0.858      0          0          0         
E143846          -0.335     2.631      0          0          0         
E143847          1.311      1.605      0          0          0         
E143848          1.372      1.504      0          0          0         
E143849          -0.253     3.157      0          0          0         
E143850          1.414      1.476      0          0          0         
E143851          1.061      1.43       0          0          0         
E143852          -0.128     2.747      0          0          0         
E143854          1.033      1.744      0          0          0         
E143855          1.25       1.573      0          0          0         
E143856          1.158      1.584      0          0          0         
E143857          1.241      1.635      0          0          0         
E143860          -0.067     2.681      0          0          0         
E143861          1.411      1.349      0          0          0         
E143862          1.362      1.086      0          0          0         
E143863          0.198      2.134      0          0          0         
E143871          1.109      1.644      0          0          0         
E143872          1.167      1.231      0          0          0         
E143880          0.314      1.633      0          0          0         
E143881          0.57       1.527      0          0          0         
E143883          0.872      1.413      0          0          0         
E143884          1.106      1.341      0          0          0         
E143885          1.186      1.147      0          0          0         
E143886          0.29       1.746      0          0          0         
E143887          0.701      1.401      0          0          0         
E143888          0.418      1.593      0          0          0         
E143889          0.482      1.859      0          0          0         
E143961          -1.07      2.345      0          0          0         
E143962          -0.372     1.039      0          0          0         
E143963          -1.07      2.481      0          0          0         
E143964          -0.119     1.067      0          0          0         
E143971          -1.116     2.517      0          0          0         
E143972          -0.408     1.515      0          0          0         
E143973          -0.347     1.303      0          0          0         
E143974          0.018      1.051      0          0          0         